Geom Title=MZH
Program Version=5.07
Viewing Rectangle= 782762.44 , 819082.24 , 2527938.6 , 2513907.96 

River Reach=maozhouhe       ,maozhouhe       
Reach XY= 9 
798110.035103827 2514018.0908433798254.3787978442514465.55629476
798153.338212032 2514840.8498992798225.5100590412515172.84039544
798413.1568612632515360.48719767798398.7224918622515937.86197374
798398.7224918622516342.02431699798355.4193836562516688.44918263
798296.8819018172516821.35080214
Rch Text X Y=798157.2476314,2514723.8609037
Reverse River Text= 0 

Type RM Length L Ch R = 1 ,31430.88,930.88,930.88,930.88
Node Last Edited Time=Apr/27/2022 00:04:44
#Sta/Elev= 4 
       0    19.5       0    16.5      15    16.5      15    19.5
#Mann= 3 , 0 , 0 
       0     .02       0       0     .02       0      15     .02       0
Bank Sta=0,15
XS Rating Curve= 0 ,0
XS HTab Starting El and Incr=16.65,0.14, 20 
XS HTab Horizontal Distribution= 5 , 5 , 5 
Exp/Cntr(USF)=0.3,0.1
Exp/Cntr=0.3,0.1

Type RM Length L Ch R = 1 ,30500.00,500,500,500
Node Last Edited Time=Apr/27/2022 00:04:44
#Sta/Elev= 4 
       0  18.496       0  15.496      15  15.496      15  18.496
#Mann= 3 , 0 , 0 
       0     .02       0       0     .02       0      15     .02       0
Bank Sta=0,15
XS Rating Curve= 0 ,0
XS HTab Starting El and Incr=15.646,0.14, 20 
XS HTab Horizontal Distribution= 5 , 5 , 5 
Exp/Cntr(USF)=0.3,0.1
Exp/Cntr=0.3,0.1

Type RM Length L Ch R = 1 ,30000.00,500,500,500
Node Last Edited Time=Apr/27/2022 00:04:44
#Sta/Elev= 4 
       0  17.957       0  14.957      15  14.957      15  17.957
#Mann= 3 , 0 , 0 
       0     .02       0       0     .02       0      15     .02       0
Bank Sta=0,15
XS Rating Curve= 0 ,0
XS HTab Starting El and Incr=15.107,0.14, 20 
XS HTab Horizontal Distribution= 5 , 5 , 5 
Exp/Cntr(USF)=0.3,0.1
Exp/Cntr=0.3,0.1

Type RM Length L Ch R = 1 ,29500.00,500,500,500
Node Last Edited Time=Apr/27/2022 00:04:44
#Sta/Elev= 4 
       0  17.418       0  14.418      15  14.418      15  17.418
#Mann= 3 , 0 , 0 
       0     .02       0       0     .02       0      15     .02       0
Bank Sta=0,15
XS Rating Curve= 0 ,0
XS HTab Starting El and Incr=14.568,0.14, 20 
XS HTab Horizontal Distribution= 5 , 5 , 5 
Exp/Cntr(USF)=0.3,0.1
Exp/Cntr=0.3,0.1

Type RM Length L Ch R = 1 ,29000.00,351.08,351.08,351.08
Node Last Edited Time=Apr/27/2022 00:04:44
#Sta/Elev= 4 
       0  16.879       0  13.879      15  13.879      15  16.879
#Mann= 3 , 0 , 0 
       0     .02       0       0     .02       0      15     .02       0
Bank Sta=0,15
XS Rating Curve= 0 ,0
XS HTab Starting El and Incr=14.029,0.14, 20 
XS HTab Horizontal Distribution= 5 , 5 , 5 
Exp/Cntr(USF)=0.3,0.1
Exp/Cntr=0.3,0.1

Type RM Length L Ch R = 1 ,28648.92,648.92,648.92,648.92
XS GIS Cut Line=5
798291.4075052672516838.40300743798291.4075052672516838.40300743
798291.1862313972516843.65884462798306.3629232352516843.93916249
798306.3629232352516843.93916249
Node Last Edited Time=Apr/27/2022 00:04:44
#Sta/Elev= 4 
       0    16.5       0    13.5      15    13.5      15    16.5
#Mann= 3 , 0 , 0 
       0     .02       0       0     .02       0      15     .02       0
Bank Sta=0,15
XS Rating Curve= 0 ,0
XS HTab Starting El and Incr=13.65,0.14, 20 
XS HTab Horizontal Distribution= 5 , 5 , 5 
Exp/Cntr(USF)=0.3,0.1
Exp/Cntr=0.3,0.1

River Reach=maozhouhe       ,01              
Reach XY= 56 
798296.4072626152516821.82544134798294.5087058092516846.03204063
798239.9444284422516977.13657066798528.6318164772517208.08648109
798788.4504657092517612.24882434798817.3192045122517915.37058178
798701.844249298 2518088.5830146798802.8848351112518333.96729443
 798629.672402292518536.04846605  798716.27861872518781.43274588
  798716.27861872519257.76693614798615.2380328882519921.74792862
798759.5817269052520138.26346965798745.147357504 2520614.5976599
798571.9349246832520961.02252555798644.106771691 2521437.3567158
798831.7535739142521870.38779786798918.3597903252522606.54063735
798499.7630776742523155.04667461797864.6508239972523674.68397307
797604.8321747652523992.24009991796796.5074882672524252.05874914
796175.8296039922524439.70555137795699.4954137342524410.83681256
795295.3330704852524353.09933496 794920.039466042524093.28068573
793736.4211750962523559.20901786793462.1681564632523501.47154025
792552.8028841532523703.55271188792292.9842349212524021.10883872
790936.1535111572523674.68397307790041.2226082482523530.34027906
789579.3227873922523689.11834248788929.7761643132523573.64338726
788540.0481904662523588.07775666788265.7951718332523313.82473803
 788410.138865852522851.92491718788352.4013882432522678.71248435
788063.7140002082522462.19694333787601.8141793522522433.32820452
787370.8642689242522750.88433136787038.8737726842522707.58122316
786981.1362950772522433.32820452787139.9143584962522029.16586128
787139.9143584962521754.91284264 786591.408321232521480.65982401
786201.6803473832521076.49748076786143.9428697752520744.50698452
786331.5896719982520412.51648828 786432.630257812520123.82910024
786288.2865637932519633.06054058785985.1648063562519113.42324212
785292.3150750722518752.56400708784440.6872803692518348.40166383
 783704.534440882517814.32999596783026.1190789972517236.95521989
Rch Text X Y=794480.6936804,2516940.1171187
Reverse River Text=-1 

Type RM Length L Ch R = 1 ,27500.00,500,500,500
XS GIS Cut Line=5
798290.5769958072516835.45434743798290.5769958072516835.45434743
798319.1899442962516830.36894697798307.1934326952516846.88782249
798307.1934326952516846.88782249
Node Last Edited Time=Apr/27/2022 00:04:44
#Sta/Elev= 4 
       0   14.95       0   11.95  19.651   11.95  19.651   14.95
#Mann= 3 , 0 , 0 
       0     .02       0       0     .02       0  19.651     .02       0
Bank Sta=0,19.651
XS Rating Curve= 0 ,0
XS HTab Starting El and Incr=12.1,0.14, 20 
XS HTab Horizontal Distribution= 5 , 5 , 5 
Exp/Cntr(USF)=0.3,0.1
Exp/Cntr=0.3,0.1

Type RM Length L Ch R = 1 ,27000.00,500,500,500
Node Last Edited Time=Apr/27/2022 00:04:44
#Sta/Elev= 4 
       0  14.275       0  11.275  21.675  11.275  21.675  14.275
#Mann= 3 , 0 , 0 
       0     .02       0       0     .02       0  21.675     .02       0
Bank Sta=0,21.675
XS Rating Curve= 0 ,0
XS HTab Starting El and Incr=11.425,0.14, 20 
XS HTab Horizontal Distribution= 5 , 5 , 5 
Exp/Cntr(USF)=0.3,0.1
Exp/Cntr=0.3,0.1

Type RM Length L Ch R = 1 ,26500.00,500,500,500
Node Last Edited Time=Apr/27/2022 00:04:44
#Sta/Elev= 4 
       0  13.601       0  10.601  23.698  10.601  23.698  13.601
#Mann= 3 , 0 , 0 
       0     .02       0       0     .02       0  23.698     .02       0
Bank Sta=0,23.698
XS Rating Curve= 0 ,0
XS HTab Starting El and Incr=10.751,0.14, 20 
XS HTab Horizontal Distribution= 5 , 5 , 5 
Exp/Cntr(USF)=0.3,0.1
Exp/Cntr=0.3,0.1

Type RM Length L Ch R = 1 ,26000.00,500,500,500
Node Last Edited Time=Apr/27/2022 00:04:44
#Sta/Elev= 4 
       0  12.926       0   9.926  25.722   9.926  25.722  12.926
#Mann= 3 , 0 , 0 
       0     .02       0       0     .02       0  25.722     .02       0
Bank Sta=0,25.722
XS Rating Curve= 0 ,0
XS HTab Starting El and Incr=10.076,0.14, 20 
XS HTab Horizontal Distribution= 5 , 5 , 5 
Exp/Cntr(USF)=0.3,0.1
Exp/Cntr=0.3,0.1

Type RM Length L Ch R = 1 ,25500.00,556.76,556.76,556.76
Node Last Edited Time=Apr/27/2022 00:04:44
#Sta/Elev= 4 
       0  12.251       0   9.251  27.746   9.251  27.746  12.251
#Mann= 3 , 0 , 0 
       0     .02       0       0     .02       0  27.746     .02       0
Bank Sta=0,27.746
XS Rating Curve= 0 ,0
XS HTab Starting El and Incr=9.401,0.14, 20 
XS HTab Horizontal Distribution= 5 , 5 , 5 
Exp/Cntr(USF)=0.3,0.1
Exp/Cntr=0.3,0.1

Type RM Length L Ch R = 1 ,24943.24,443.24,443.24,443.24
Node Last Edited Time=Apr/27/2022 00:04:44
#Sta/Elev= 4 
       0    11.5       0     8.5      30     8.5      30    11.5
#Mann= 3 , 0 , 0 
       0     .02       0       0     .02       0      30     .02       0
Bank Sta=0,30
XS Rating Curve= 0 ,0
XS HTab Starting El and Incr=8.65,0.14, 20 
XS HTab Horizontal Distribution= 5 , 5 , 5 
Exp/Cntr(USF)=0.3,0.1
Exp/Cntr=0.3,0.1

Type RM Length L Ch R = 1 ,24500.00,500,500,500
Node Last Edited Time=Apr/27/2022 00:04:44
#Sta/Elev= 4 
       0  10.982       0   7.948  36.039   7.948  36.039  10.982
#Mann= 3 , 0 , 0 
       0     .02       0       0     .02       0  36.039     .02       0
Bank Sta=0,36.039
XS Rating Curve= 0 ,0
XS HTab Starting El and Incr=8.098,0.14, 21 
XS HTab Horizontal Distribution= 5 , 5 , 5 
Exp/Cntr(USF)=0.3,0.1
Exp/Cntr=0.3,0.1

Type RM Length L Ch R = 1 ,24000.00,400,400,400
Node Last Edited Time=Apr/27/2022 00:04:44
#Sta/Elev= 4 
       0  10.399       0   7.326  42.851   7.326  42.851  10.399
#Mann= 3 , 0 , 0 
       0     .02       0       0     .02       0  42.851     .02       0
Bank Sta=0,42.851
XS Rating Curve= 0 ,0
XS HTab Starting El and Incr=7.476,0.15, 20 
XS HTab Horizontal Distribution= 5 , 5 , 5 
Exp/Cntr(USF)=0.3,0.1
Exp/Cntr=0.3,0.1

Type RM Length L Ch R = 1 ,23600.00,504.66,504.66,504.66
Node Last Edited Time=Apr/27/2022 00:04:44
#Sta/Elev= 4 
       0   9.931       0   6.828    48.3   6.828    48.3   9.931
#Mann= 3 , 0 , 0 
       0     .02       0       0     .02       0    48.3     .02       0
Bank Sta=0,48.3
XS Rating Curve= 0 ,0
XS HTab Starting El and Incr=6.978,0.15, 20 
XS HTab Horizontal Distribution= 5 , 5 , 5 
Exp/Cntr(USF)=0.3,0.1
Exp/Cntr=0.3,0.1

Type RM Length L Ch R = 1 ,23095.34,827.28,827.28,827.28
Node Last Edited Time=Apr/27/2022 00:04:44
#Sta/Elev= 4 
       0   9.342       0     6.2  55.176     6.2  55.176   9.342
#Mann= 3 , 0 , 0 
       0     .02       0       0     .02       0  55.176     .02       0
Bank Sta=0,55.176
XS Rating Curve= 0 ,0
XS HTab Starting El and Incr=6.35,0.15, 20 
XS HTab Horizontal Distribution= 5 , 5 , 5 
Exp/Cntr(USF)=0.3,0.1
Exp/Cntr=0.3,0.1

Type RM Length L Ch R = 1 ,22268.06,592.34,592.34,592.34
Node Last Edited Time=Apr/27/2022 00:04:44
#Sta/Elev= 4 
       0   8.376       0     5.2  66.447     5.2  66.447   8.376
#Mann= 3 , 0 , 0 
       0     .02       0       0     .02       0  66.447     .02       0
Bank Sta=0,66.447
XS Rating Curve= 0 ,0
XS HTab Starting El and Incr=5.35,0.15, 20 
XS HTab Horizontal Distribution= 5 , 5 , 5 
Exp/Cntr(USF)=0.3,0.1
Exp/Cntr=0.3,0.1

Type RM Length L Ch R = 1 ,21675.72,675.72,675.72,675.72
Node Last Edited Time=Apr/27/2022 00:04:44
#Sta/Elev= 4 
       0   7.684       0   4.366  74.517   4.366  74.517   7.684
#Mann= 3 , 0 , 0 
       0     .02       0       0     .02       0  74.517     .02       0
Bank Sta=0,74.517
XS Rating Curve= 0 ,0
XS HTab Starting El and Incr=4.516,0.16, 20 
XS HTab Horizontal Distribution= 5 , 5 , 5 
Exp/Cntr(USF)=0.3,0.1
Exp/Cntr=0.3,0.1

Type RM Length L Ch R = 1 ,21000.00,500,500,500
Node Last Edited Time=Apr/27/2022 00:04:44
#Sta/Elev= 4 
       0   6.895       0   3.511  83.723   3.511  83.723   6.895
#Mann= 3 , 0 , 0 
       0     .02       0       0     .02       0  83.723     .02       0
Bank Sta=0,83.723
XS Rating Curve= 0 ,0
XS HTab Starting El and Incr=3.661,0.16, 20 
XS HTab Horizontal Distribution= 5 , 5 , 5 
Exp/Cntr(USF)=0.3,0.1
Exp/Cntr=0.3,0.1

Type RM Length L Ch R = 1 ,20500.00,694.72,694.72,694.72
Node Last Edited Time=Apr/27/2022 00:04:44
#Sta/Elev= 4 
       0   6.311       0   2.879  90.535   2.879  90.535   6.311
#Mann= 3 , 0 , 0 
       0     .02       0       0     .02       0  90.535     .02       0
Bank Sta=0,90.535
XS Rating Curve= 0 ,0
XS HTab Starting El and Incr=3.029,0.16, 21 
XS HTab Horizontal Distribution= 5 , 5 , 5 
Exp/Cntr(USF)=0.3,0.1
Exp/Cntr=0.3,0.1

Type RM Length L Ch R = 1 ,19805.28,605.28,605.28,605.28
Node Last Edited Time=Apr/27/2022 00:04:44
#Sta/Elev= 4 
       0     5.5       0       2     100       2     100     5.5
#Mann= 3 , 0 , 0 
       0     .02       0       0     .02       0     100     .02       0
Bank Sta=0,100
XS Rating Curve= 0 ,0
XS HTab Starting El and Incr=2.15,0.17, 20 
XS HTab Horizontal Distribution= 5 , 5 , 5 
Exp/Cntr(USF)=0.3,0.1
Exp/Cntr=0.3,0.1

Type RM Length L Ch R = 1 ,19200.00,560.66,560.66,560.66
Node Last Edited Time=Apr/27/2022 00:04:44
#Sta/Elev= 28 
       0    4.47       0   2.787    .323   2.787   7.075   2.789   7.083   2.745
   7.324    2.36   7.433   2.356  11.292   1.983  11.519   1.968  12.713   1.961
  14.427   2.164  14.676   2.147  17.613   2.031  22.322   1.652  22.787   1.649
  26.923   1.644  27.451   1.639  45.242   1.487  45.732   1.487  58.422   1.512
  58.591   1.515  59.019   1.514  79.304   1.622   79.42   1.622  84.716   1.777
  84.824   1.779  88.649   2.325  89.722   4.009
#Mann= 3 , 0 , 0 
       0     .02       0       0     .02       0  89.722     .02       0
Bank Sta=0,89.722
XS Rating Curve= 0 ,0
XS HTab Starting El and Incr=1.637,0.14, 20 
XS HTab Horizontal Distribution= 5 , 5 , 5 
Exp/Cntr(USF)=0.3,0.1
Exp/Cntr=0.3,0.1

Type RM Length L Ch R = 1 ,18639.34,600,600,600
Node Last Edited Time=Apr/27/2022 00:04:44
#Sta/Elev= 27 
       0   3.516    .295   3.516   6.463   3.519   6.471   3.435   6.691   2.694
    6.79   2.685  10.316   1.968  10.523   1.939  11.614   1.924   13.18   2.315
  13.407   2.283   16.09    2.06  20.392   1.329  20.817   1.324  24.595   1.314
  25.078   1.305  41.331   1.011  41.778   1.011  52.862    1.06   53.01   1.065
  53.384   1.064  71.102   1.271  71.203   1.271  75.829    1.57  75.923   1.574
  79.264   2.627  80.201   2.628
#Mann= 3 , 0 , 0 
       0     .02       0       0     .02       0  80.201     .02       0
Bank Sta=0,80.201
XS Rating Curve= 0 ,0
XS HTab Starting El and Incr=1.161,0.12, 20 
XS HTab Horizontal Distribution= 5 , 5 , 5 
Exp/Cntr(USF)=0.3,0.1
Exp/Cntr=0.3,0.1

Type RM Length L Ch R = 1 ,18039.34,500,500,500
Node Last Edited Time=Apr/27/2022 00:04:44
#Sta/Elev= 61 
       0    3.76    .494    3.76     .51   3.663    .709   3.655    .735    3.62
    5.97   3.609   6.322   3.614    6.33    3.58   6.376   3.517   6.521   2.252
   6.545   2.218   6.642   2.212   8.364   2.026   8.484   1.655   9.305   1.581
  10.091   1.528  10.293    1.52  11.361   1.531  12.892   1.712  13.115   1.703
  15.739   1.656  16.185   1.632  18.364   1.657  19.947    1.55  20.363   1.549
  20.578   1.549   22.96   1.295  24.058   1.286  24.531    1.28  25.351   1.268
  40.429   1.023  40.867   1.019  42.335   1.035  42.407   1.198  43.216    1.16
  52.592   1.257  53.747   1.272  53.919   1.276  54.353    1.28  54.478   1.282
   56.25   1.566  57.884   1.856  60.816   1.981  62.392   2.021  69.454   2.002
  69.518   1.892  71.666   1.931  74.942   1.629   75.06   1.617  75.237   1.604
  75.681   1.635  75.801   1.904  79.122   1.987  80.325   2.025  80.435   2.045
  80.545   2.064  81.785   2.398  82.865   2.518  83.044   3.348  84.427   3.498
  85.516   3.499
#Mann= 3 , 0 , 0 
       0     .02       0       0     .02       0  85.516     .02       0
Bank Sta=0,85.516
XS Rating Curve= 0 ,0
XS HTab Starting El and Incr=1.169,0.13, 20 
XS HTab Horizontal Distribution= 5 , 5 , 5 
Exp/Cntr(USF)=0.3,0.1
Exp/Cntr=0.3,0.1

Type RM Length L Ch R = 1 ,17539.34,500,500,500
Node Last Edited Time=Apr/27/2022 00:04:44
#Sta/Elev= 68 
       0   3.966    .472   3.966    .487   3.836    .677   3.826    .702   3.779
   5.705   3.763   6.093    3.77   6.231   2.349   6.475   2.341   6.477   2.336
    6.51   2.334    6.75    1.97   6.755   1.968   7.993   1.891   8.107   1.406
   8.892   1.377  10.289    1.37  10.511   1.233  10.571   1.235  15.466   1.344
  17.548   1.579  19.664   1.585   21.94    1.25  24.225   1.227  25.855   1.207
  26.018   1.205  26.149   1.203  38.941   1.028  39.051   1.026  40.684   1.045
  40.765   1.261  41.664    1.21  47.053    1.27  47.215   1.272  52.091   1.334
  54.189   1.365   56.16   1.739  56.911   1.896  56.985   1.916  57.023   1.926
  57.976   2.183  60.035   2.405  60.344    2.52  61.238    2.56   62.99   2.603
  66.153   2.574  66.421   2.571  70.844   2.519  70.915   2.371  73.305   2.403
  74.048   2.314  74.118   2.306  74.942   2.035  77.276   1.769  77.769   1.798
  77.903   2.153  81.034   2.168  81.192   2.167  81.596   2.187  82.935   2.264
  84.294    2.59  84.298   2.599  84.557   2.831  84.866   3.048  84.947   3.048
  85.759    3.05  85.958   4.132  88.707   4.132
#Mann= 3 , 0 , 0 
       0     .02       0       0     .02       0  88.707     .02       0
Bank Sta=0,88.707
XS Rating Curve= 0 ,0
XS HTab Starting El and Incr=1.176,0.15, 20 
XS HTab Horizontal Distribution= 5 , 5 , 5 
Exp/Cntr(USF)=0.3,0.1
Exp/Cntr=0.3,0.1

Type RM Length L Ch R = 1 ,17039.34,500,500,500
Node Last Edited Time=Apr/27/2022 00:04:44
#Sta/Elev= 61 
       0    4.07   3.095    4.07   3.305   3.702   3.307   3.698   4.574   3.661
   4.583   3.661   4.935   3.519   4.937   3.518   7.018   3.536   7.021   3.518
   7.057   3.517   7.316   2.095   7.321   2.088   7.524    2.07   7.548   2.067
  11.152   1.698  11.393   1.131  11.696   1.131  14.906   1.126  14.938   1.126
   19.48   1.111  19.497   1.111  24.846   1.093  26.983   1.093  28.024   1.101
  28.201   1.103  28.343   1.103  29.392   1.106  31.792   1.112  31.796   1.112
  35.055   1.071  35.064   1.071   38.44   1.052   38.45   1.052  42.208   1.018
  42.328   1.015  42.472   1.016  46.306    1.13  46.428    1.13  49.426   1.137
  49.571   1.138  58.172   1.215  58.238   1.235  58.272    1.24  60.944   1.984
  61.218   2.386  66.372   2.358   66.61   2.357  73.376   2.241  73.438   2.238
  74.169   1.536  79.574   1.572  79.714   1.567  82.466   2.148  82.469   2.182
  82.973   3.772  83.045   3.772  86.231   3.772  86.254   3.774  86.375   3.774
  86.381   3.775
#Mann= 3 , 0 , 0 
       0     .02       0       0     .02       0  86.381     .02       0
Bank Sta=0,86.381
XS Rating Curve= 0 ,0
XS HTab Starting El and Incr=1.165,0.15, 20 
XS HTab Horizontal Distribution= 5 , 5 , 5 
Exp/Cntr(USF)=0.3,0.1
Exp/Cntr=0.3,0.1

Type RM Length L Ch R = 1 ,16539.34,500,500,500
Node Last Edited Time=Apr/27/2022 00:04:44
#Sta/Elev= 64 
       0   3.778   4.955   3.778   5.291   2.307   5.293   2.292   7.322   2.144
   7.337   2.144     7.9   1.576   7.903   1.573   9.287   1.603  10.076   1.275
  10.197   1.277  12.045   1.317  12.083   1.316  13.467   1.315  14.741   1.117
  14.748   1.116  18.665   1.113  18.723   1.113  23.861   1.101  23.913   1.101
   27.15   1.078  27.177   1.077  27.193   1.076  31.185   1.043  31.212   1.043
  37.829     .99  37.971    .989  39.775    .968  39.783    .968  43.195    .953
  47.052   1.012  48.841    1.04  48.905   1.041  50.893   1.076    50.9   1.076
  56.118    .967  56.131    .967  61.536    .953  61.552    .953  63.849    .927
   63.93    .925  67.699    .884   67.76    .883   67.82    .886  69.403   1.326
  69.453   1.327  70.269   1.338  70.278   1.339  71.587   1.365  71.597   1.365
  73.676   1.372  73.696   1.372   75.55    1.42  75.553    1.42   75.56   1.421
  77.579   1.484  77.587   1.484  79.917   1.457  79.925   1.457   80.16   2.136
  85.886   2.138  85.895   2.148  85.945   2.148  85.948   2.149
#Mann= 3 , 0 , 0 
       0     .02       0       0     .02       0  85.948     .02       0
Bank Sta=0,85.948
XS Rating Curve= 0 ,0
XS HTab Starting El and Incr=1.033,0.14, 20 
XS HTab Horizontal Distribution= 5 , 5 , 5 
Exp/Cntr(USF)=0.3,0.1
Exp/Cntr=0.3,0.1

Type RM Length L Ch R = 1 ,16039.34,500,500,500
Node Last Edited Time=Apr/27/2022 00:04:44
#Sta/Elev= 64 
       0   3.688    .112   3.688   4.784   3.697   4.793   3.691   5.113   3.365
   5.151   3.365   5.741   3.361   6.229   1.978   6.303   1.978   6.878   1.974
   6.894    1.97   7.274   1.778   8.325   1.775   9.113    .988   9.117    .984
  10.878    .986  10.984    .987  16.184   1.015  16.341   1.015  16.784   1.016
    16.8   1.014   16.81   1.011  23.385    .976  23.473    .977  26.224    .896
  26.318    .893  26.419    .888  30.192    .766  30.232    .765   37.01    .654
  37.102    .653   39.47    .603   39.52      .6   41.85    .556  41.888    .555
   42.07     .56    49.4     .73  49.428    .733  53.348    .856  53.377    .858
  59.604    .911  59.662    .912  59.758    .916  59.928    .922  60.088    .928
  65.217   1.107  65.225   1.107  65.244   1.108  71.291   1.359  71.316   1.359
  77.507   1.262  77.576   1.261  78.293   1.255  78.317   1.256   79.02   3.964
  79.023   3.977  83.951   4.018  88.119   4.039  88.191   4.039  95.318   4.066
  95.338   4.067  96.297   4.512    96.3   4.514  96.353   4.514
#Mann= 3 , 0 , 0 
       0     .02       0       0     .02       0  96.353     .02       0
Bank Sta=0,96.353
XS Rating Curve= 0 ,0
XS HTab Starting El and Incr=0.705,0.19, 20 
XS HTab Horizontal Distribution= 5 , 5 , 5 
Exp/Cntr(USF)=0.3,0.1
Exp/Cntr=0.3,0.1

Type RM Length L Ch R = 1 ,15539.34,500,500,500
Node Last Edited Time=Apr/27/2022 00:04:44
#Sta/Elev= 64 
       0   3.717     .13   3.715   1.538   3.725   1.651   3.726   2.494   3.398
   2.504   3.392   5.544   3.207   5.554   3.179   5.925   1.851   5.969   1.847
   6.601    1.79   6.636   1.789   6.675   1.786    7.97   1.761   7.988   1.743
    8.43    .976  12.605    .948  12.729    .948  18.754    .988  18.936    .986
   21.17    .979  21.302    .978  30.388    .867  30.497    .866  30.614    .855
  34.947    .761  34.974    .761  38.919    .669  41.325    .613  41.328    .613
  42.887    .557  42.994    .555  48.539    .262  48.572    .263  48.664    .267
  52.525      .4  56.638    .592  56.714    .595  60.741    .788  60.857    .794
  60.966    .797  62.418    .825  62.492    .825   72.86    .935  72.907    .937
   77.26   1.191  78.467   1.238  78.678   1.246  78.739   1.248  78.749   1.252
  80.105   1.307  80.154   1.307  81.807   1.361  81.852   1.362  81.861   1.372
   82.48   1.516  84.044   1.557  84.584   1.928  84.711   1.931  85.021   1.938
  85.034   1.941  85.689   3.719  85.691    3.73  85.727    3.73
#Mann= 3 , 0 , 0 
       0     .02       0       0     .02       0  85.727     .02       0
Bank Sta=0,85.727
XS Rating Curve= 0 ,0
XS HTab Starting El and Incr=0.412,0.17, 20 
XS HTab Horizontal Distribution= 5 , 5 , 5 
Exp/Cntr(USF)=0.3,0.1
Exp/Cntr=0.3,0.1

Type RM Length L Ch R = 1 ,15039.34,500,500,500
Node Last Edited Time=Apr/27/2022 00:04:44
#Sta/Elev= 60 
       0   3.777   1.373   3.804   1.474   3.807   2.226   2.489   2.234   2.465
   2.464   2.399   2.577   2.329   5.891   1.063   5.922    1.06   5.957   1.046
   6.118   1.035   6.432   1.027  10.345   1.043   12.95   1.053  18.894   1.072
  19.011   1.073  21.054    .995   21.74    .971  31.058    .601  31.189    .596
  31.204    .596  31.213    .595  31.407    .586  34.734    .423  36.881    .319
  36.884    .319   43.18    -.34  43.319   -.356  43.355   -.355  43.461   -.352
  43.723   -.348  47.786    -.27  52.394    .023  52.479    .026  53.532    .098
   53.65    .105  58.871     .47  58.953    .473  64.445    .688  64.922    .706
  74.351   1.059   74.55   1.066  76.853   1.152   77.09   1.158  77.159    1.16
   77.17   1.174  80.597    1.32  80.646   1.321  80.657   1.358  81.155   1.736
  81.163   1.743  81.207   1.779  81.351   1.891  82.753   1.951  82.805   1.952
  83.102       2  83.708   3.523  83.851   3.544  84.949   3.704  84.989   3.704
#Mann= 3 , 0 , 0 
       0     .02       0       0     .02       0  84.989     .02       0
Bank Sta=0,84.989
XS Rating Curve= 0 ,0
XS HTab Starting El and Incr=-0.206,0.2, 20 
XS HTab Horizontal Distribution= 5 , 5 , 5 
Exp/Cntr(USF)=0.3,0.1
Exp/Cntr=0.3,0.1

Type RM Length L Ch R = 1 ,14539.34,500,500,500
Node Last Edited Time=Apr/27/2022 00:04:44
#Sta/Elev= 50 
       0   3.356   3.743   3.581   3.915   3.496   4.151   3.472   9.295   2.577
   9.772   2.527  11.751   2.421  15.717    2.38  19.674   2.338  21.679   2.314
  21.811   2.493  27.282   2.384  27.315   2.123  27.612   2.056  30.707   2.031
  31.045   1.233  31.985   1.105  32.761   1.001  32.935    .855  33.028    .829
  34.123    .518  40.271    -.07  47.184    -.43  47.713   -.459  55.703   -.902
    65.6  -1.073  65.811  -1.081  66.012  -1.074  66.383  -1.067  80.256   -.733
  80.423    -.73  82.015   -.686  91.458   -.602  95.691   -.587  96.366   -.585
 104.264   -.579 108.799   -.275 109.702    -.28 109.983   -.283 114.888   -.314
 119.325   -.028 119.336   -.024 119.398   -.012 121.585    .208 121.658    .212
 122.217    .386 122.662   1.405 122.859   2.561  124.69   3.036 124.748   3.036
#Mann= 3 , 0 , 0 
       0     .02       0       0     .02       0 124.748     .02       0
Bank Sta=0,124.748
XS Rating Curve= 0 ,0
XS HTab Starting El and Incr=-0.931,0.23, 20 
XS HTab Horizontal Distribution= 5 , 5 , 5 
Exp/Cntr(USF)=0.3,0.1
Exp/Cntr=0.3,0.1

Type RM Length L Ch R = 1 ,14039.34,400,400,400
Node Last Edited Time=Apr/27/2022 00:04:44
#Sta/Elev= 92 
       0   3.004    .089   3.003      .1   2.993    .159   2.992    .205   2.991
    .232    2.99    .278    2.99   6.781   2.912   7.248   1.262  10.204   1.604
  10.211   1.609  10.258   1.614  10.268   1.612  11.918   1.753  14.401   1.727
  14.452   1.728  16.596   1.781  19.016    .915  19.017    .912  19.551    .781
  19.572     .78  24.781    .737  26.215    .726   26.31    .725  26.356    .725
  28.585    .713  28.591    .714  28.599    .714  39.281    .542  39.301    .541
  39.316    .541  39.342    .537  40.203    .531  40.231    .531  40.273     .53
  47.416    .407  47.475    .404   47.49    .403  51.053    .334  51.084    .333
   51.12    .333   57.91    .287  57.938     .28  58.047    .276  60.381     .06
  62.789   -.253  66.396   -.529   66.42    -.53  66.432    -.53   66.57   -.522
   71.34   -.375  75.672   -.298   75.68   -.298  76.987   -.265  77.098   -.261
  80.483   -.156  80.559   -.147  81.113   -.128  81.764   -.111  86.135    .004
  86.368    .012  92.751    .515  92.773    .517  93.533    .573  93.691    .589
  96.699    .559  98.804    .722 101.734    .633 101.888    .634 103.173    .665
 103.209    .666 108.025    .749 108.202    .745 108.251    .728 111.642    .745
 111.689    .745 111.895     .75 111.923    .741 111.984     .74     112    .752
  116.96    .668 117.096    .716 120.321    .789 120.361     .79 121.874    .898
 122.552   1.026 122.898   1.241 122.954   1.266  122.96   1.268 125.359   2.357
 125.388    2.37 126.855   2.761
#Mann= 3 , 0 , 0 
       0     .02       0       0     .02       0 126.855     .02       0
Bank Sta=0,126.855
XS Rating Curve= 0 ,0
XS HTab Starting El and Incr=-0.38,0.17, 20 
XS HTab Horizontal Distribution= 5 , 5 , 5 
Exp/Cntr(USF)=0.3,0.1
Exp/Cntr=0.3,0.1

Type RM Length L Ch R = 1 ,13639.34,596,596,596
Node Last Edited Time=Apr/27/2022 00:04:44
#Sta/Elev= 45 
       0   6.872    .082   6.872    .105   6.872    .312   6.789     .39   6.779
  33.236   3.698  33.244    3.68  33.324    3.67  33.419    3.65  33.455   3.623
  33.675   3.597   42.93   3.604  43.099   3.601  43.576    .305  43.637    .307
  43.713    .318  50.819    .366  62.295    .377  62.657     .38  68.116   -.189
  68.229   -.189  78.713   -.299  78.814   -.306  78.918   -.298  91.215   -.565
  91.429   -.569 102.007   -.176 112.344   -.415 112.532   -.411 122.727   -.561
 122.796   -.564 127.771  -1.091 131.982   -.833  132.06   -.835  135.42   -.509
 138.911    -.36 145.002    .178  145.04     .18 154.105     .16 154.126    .161
 159.841     .23 159.848     .23 162.414    .601 162.415    .603  162.64   3.005
#Mann= 3 , 0 , 0 
       0     .02       0       0     .02       0  162.64     .02       0
Bank Sta=0,162.64
XS Rating Curve= 0 ,0
XS HTab Starting El and Incr=-0.941,0.3, 26 
XS HTab Horizontal Distribution= 5 , 5 , 5 
Exp/Cntr(USF)=0.3,0.1
Exp/Cntr=0.3,0.1

Type RM Length L Ch R = 1 ,13043.34,384,384,384
Node Last Edited Time=Apr/27/2022 00:04:44
#Sta/Elev= 87 
       0   5.492    .662   5.492   1.626   5.177    1.79   5.112   4.836   4.671
   4.858   4.653    8.24   3.247   8.262   3.238   8.736   2.834   8.922    2.63
   8.923   2.627   9.194   2.488  12.356   1.853  12.528   1.822  13.963   1.553
  13.977   1.551  13.989    1.55  20.165   1.265  20.166   1.263  20.779    .707
  21.764    .365  21.782    .364  25.301    .218  25.486     .21  25.589    .206
  29.702     .04  29.723    .039  36.172   -.062  36.283   -.065  36.478   -.066
  39.356   -.094  39.379   -.094  46.388   -.103  46.413   -.103  56.403   -.163
  56.518   -.164   56.61   -.164  56.709   -.163  56.855   -.163  67.219   -.108
  67.236   -.108  70.226   -.057  70.339   -.056  70.443   -.055   70.54   -.054
  72.052   -.033  72.074   -.033  86.091    .024  86.103    .025  86.127    .025
  87.183     .02  87.283    .019  87.487    .019  96.969     .02  97.079    .021
  97.422    .021 103.472    .109 103.636    .111 107.457    .206 107.469    .206
 108.747    .264 108.822    .268 111.322     .38 111.333    .381 113.636    .505
 113.687    .508 113.705    .517 113.799    .521 118.814   1.009  118.95   1.015
  119.92    1.07 119.933   1.071 121.469   1.795 121.475   1.796 121.478   1.797
 121.487   1.798 132.868   2.589 132.878    2.59 133.494   2.856 133.644    2.92
 133.718   2.954 133.784    2.99 139.653   5.942 140.833   6.432 140.849   6.438
 141.796   6.453 141.805   6.454
#Mann= 3 , 0 , 0 
       0     .02       0       0     .02       0 141.805     .02       0
Bank Sta=0,141.805
XS Rating Curve= 0 ,0
XS HTab Starting El and Incr=-0.014,0.3, 22 
XS HTab Horizontal Distribution= 5 , 5 , 5 
Exp/Cntr(USF)=0.3,0.1
Exp/Cntr=0.3,0.1

Type RM Length L Ch R = 1 ,12659.34,659.17,659.17,659.17
Node Last Edited Time=Apr/27/2022 00:04:44
#Sta/Elev= 43 
   4.718   3.462   4.739   3.405   8.523   1.652   8.969    .888  12.054    .555
  12.222    .554  24.683    .037  24.863    .027  24.964    .023  35.288    -.36
  35.396   -.368  35.587   -.369  55.025   -.496  55.137   -.496  55.227   -.498
  55.329   -.491  55.479   -.493  69.237   -.236  69.354    -.24  69.461   -.241
   69.56   -.241  86.685   -.221  86.788   -.222  86.998   -.217  96.755    .027
  96.868    .032 103.446    .168 103.615    .169 108.874    .539 108.951     .55
 113.905    .883 113.957     .89 113.976    .932 114.073    .932 119.233   2.371
 119.373   2.374 134.338   3.548 134.492   3.557 134.569   3.572 134.636   3.618