Flow Title=UFlow
Program Version=5.07
Use Restart= 0 
Boundary Location=maozhouhe       ,maozhouhe       ,31430.88,        ,                ,                ,                ,                                
Interval=1HOUR
Flow Hydrograph=13
      10      10      10      10      10      10      10      10      10      10
      10      10      10
DSS Path=
Use DSS=False
Use Fixed Start Time=False
Fixed Start Date/Time=,
Is Critical Boundary=False
Critical Boundary Flow=
Boundary Location=erjingshui      ,erjingshui      ,5500    ,        ,                ,                ,                ,                                
Interval=1HOUR
Flow Hydrograph=13
       1       1       1       1       1       1       1       1       1       1
       1       1       1
DSS Path=
Use DSS=False
Use Fixed Start Time=False
Fixed Start Date/Time=,
Is Critical Boundary=False
Critical Boundary Flow=
Boundary Location=yutianhe        ,yutianhe        ,1500    ,        ,                ,                ,                ,                                
Interval=1HOUR
Flow Hydrograph=13
     777     888     999       1       1       1       1       1       1       1
       1       1       1
DSS Path=
Use DSS=False
Use Fixed Start Time=False
Fixed Start Date/Time=,
Is Critical Boundary=False
Critical Boundary Flow=
