Geom Title=MZH
Program Version=5.07
Viewing Rectangle= 782765.8 , 819095.14 , 2524943.95 , 2513907.61 

Junct Name=YTH             
Junct Desc=, 0 , 0 ,-1 ,-1
Junct X Y & Text X Y=798302.625,2516833.75,798302.625,2516833.75
Up River,Reach=maozhouhe       ,maozhouhe
Up River,Reach=yutianhe        ,yutianhe
Dn River,Reach=maozhouhe       ,01
Junc L&A=324.46,
Junc L&A=0,

Junct Name=EJS             
Junct Desc=, 0 , 0 ,-1 ,-1
Junct X Y & Text X Y=798771.0466559,2518257.9922288,798771.0466559,2518257.9922288
Up River,Reach=maozhouhe       ,01              
Up River,Reach=erjingshui      ,erjingshui      
Dn River,Reach=maozhouhe       ,02              
Junc L&A=500,
Junc L&A=0,

River Reach=yutianhe        ,yutianhe        
Reach XY= 7 
797288.8069612562515481.98015275797457.7749890052515766.15365396
797469.2955363512515869.83858008797511.5375432892516023.44587803
797511.5375432892516215.45500047 798202.770384082516756.92072576
 798302.615127752516833.72437474
Rch Text X Y=797542.2590029,2515819.9162082
Reverse River Text= 0 

Type RM Length L Ch R = 1 ,1500    ,500,500,500
Node Last Edited Time=Apr/30/2022 23:04:52
#Sta/Elev= 4 
       0    16.5       0    13.5      15    13.5      15    16.5
#Mann= 3 , 0 , 0 
       0     .04       0       0     .04       0      15     .04       0
Bank Sta=0,15
XS Rating Curve= 0 ,0
XS HTab Starting El and Incr=13.65,0.14, 20 
XS HTab Horizontal Distribution= 5 , 5 , 5 
Exp/Cntr=0.3,0.1

Type RM Length L Ch R = 1 ,1000.00*,500,500,500
Node Last Edited Time=Apr/30/2022 23:05:18
#Sta/Elev= 4 
       0    16.5       0    13.4      15    13.4      15    16.5
#Mann= 2 , 0 , 0 
       0     .04       0      15     .04       0
Bank Sta=0,15
XS Rating Curve= 0 ,0
XS HTab Starting El and Incr=13.55,0.15, 20 
XS HTab Horizontal Distribution= 5 , 5 , 5 
Exp/Cntr=0.3,0.1

Type RM Length L Ch R = 1 ,500.00* ,500,500,500
Node Last Edited Time=Apr/30/2022 23:05:18
#Sta/Elev= 4 
       0    16.5       0    13.3      15    13.3      15    16.5
#Mann= 2 , 0 , 0 
       0     .04       0      15     .04       0
Bank Sta=0,15
XS Rating Curve= 0 ,0
XS HTab Starting El and Incr=13.45,0.15, 20 
XS HTab Horizontal Distribution= 5 , 5 , 5 
Exp/Cntr=0.3,0.1

Type RM Length L Ch R = 1 ,0       ,1500,1500,1500
Node Last Edited Time=Apr/30/2022 23:05:11
#Sta/Elev= 4 
       0    16.5       0    13.2      15    13.2      15    16.5
#Mann= 3 , 0 , 0 
       0     .04       0       0     .04       0      15     .04       0
Bank Sta=0,15
XS Rating Curve= 0 ,0
XS HTab Starting El and Incr=13.35,0.16, 20 
XS HTab Horizontal Distribution= 5 , 5 , 5 
Exp/Cntr=0.3,0.1

River Reach=erjingshui      ,erjingshui      
Reach XY= 21 
803310.5776689932515880.56590352803215.7516989672515952.81426164
 802538.423341642515952.81426164802285.5540882372515867.01933638
801766.2690142862516101.82650025801635.3188652032516083.76441072
 801608.225730912516255.35426124801292.1391641572516354.69575365
801206.3442388962516512.73903703800745.7609559132516788.18590234
800515.4693144222516864.94978284800235.5069267272517176.52082721
799901.3582704452517271.34679723799824.5943899482517375.20381202
799404.6508084052517420.35903585799296.2782712332517551.30918493
799097.5952864172517600.97993113799084.0487192712517908.03545312
798998.2537940092518106.71843794798903.4278239832518246.69963179
 798771.046655932518257.99222876
Rch Text X Y=802175.6949157,2516474.9224848
Reverse River Text= 0 

Type RM Length L Ch R = 1 ,5500    ,500,500,500
Node Last Edited Time=Apr/30/2022 23:40:19
#Sta/Elev= 4 
       0    16.5       0    11.7      15    11.7      15    16.5
#Mann= 3 , 0 , 0 
       0     .04       0       0     .04       0      15     .04       0
Bank Sta=0,15
XS Rating Curve= 0 ,0
XS HTab Starting El and Incr=11.85,0.23, 20 
XS HTab Horizontal Distribution= 5 , 5 , 5 
Exp/Cntr=0.3,0.1

Type RM Length L Ch R = 1 ,5000.00*,500,500,500
Node Last Edited Time=Apr/30/2022 23:40:35
#Sta/Elev= 4 
       0    16.5       0  11.609      15  11.609      15    16.5
#Mann= 2 , 0 , 0 
       0     .04       0      15     .04       0
Bank Sta=0,15
XS Rating Curve= 0 ,0
XS HTab Starting El and Incr=11.759,0.24, 20 
XS HTab Horizontal Distribution= 5 , 5 , 5 
Exp/Cntr=0.3,0.1

Type RM Length L Ch R = 1 ,4500.00*,500,500,500
Node Last Edited Time=Apr/30/2022 23:40:35
#Sta/Elev= 4 
       0    16.5       0  11.518      15  11.518      15    16.5
#Mann= 2 , 0 , 0 
       0     .04       0      15     .04       0
Bank Sta=0,15
XS Rating Curve= 0 ,0
XS HTab Starting El and Incr=11.668,0.24, 20 
XS HTab Horizontal Distribution= 5 , 5 , 5 
Exp/Cntr=0.3,0.1

Type RM Length L Ch R = 1 ,4000.00*,500,500,500
Node Last Edited Time=Apr/30/2022 23:40:35
#Sta/Elev= 4 
       0    16.5       0  11.427      15  11.427      15    16.5
#Mann= 2 , 0 , 0 
       0     .04       0      15     .04       0
Bank Sta=0,15
XS Rating Curve= 0 ,0
XS HTab Starting El and Incr=11.577,0.25, 20 
XS HTab Horizontal Distribution= 5 , 5 , 5 
Exp/Cntr=0.3,0.1

Type RM Length L Ch R = 1 ,3500.00*,500,500,500
Node Last Edited Time=Apr/30/2022 23:40:35
#Sta/Elev= 4 
       0    16.5       0  11.336      15  11.336      15    16.5
#Mann= 2 , 0 , 0 
       0     .04       0      15     .04       0
Bank Sta=0,15
XS Rating Curve= 0 ,0
XS HTab Starting El and Incr=11.486,0.25, 20 
XS HTab Horizontal Distribution= 5 , 5 , 5 
Exp/Cntr=0.3,0.1

Type RM Length L Ch R = 1 ,3000.00*,500,500,500
Node Last Edited Time=Apr/30/2022 23:40:35
#Sta/Elev= 4 
       0    16.5       0  11.245      15  11.245      15    16.5
#Mann= 2 , 0 , 0 
       0     .04       0      15     .04       0
Bank Sta=0,15
XS Rating Curve= 0 ,0
XS HTab Starting El and Incr=11.395,0.26, 20 
XS HTab Horizontal Distribution= 5 , 5 , 5 
Exp/Cntr=0.3,0.1

Type RM Length L Ch R = 1 ,2500.00*,500,500,500
Node Last Edited Time=Apr/30/2022 23:40:35
#Sta/Elev= 4 
       0    16.5       0  11.155      15  11.155      15    16.5
#Mann= 2 , 0 , 0 
       0     .04       0      15     .04       0
Bank Sta=0,15
XS Rating Curve= 0 ,0
XS HTab Starting El and Incr=11.305,0.26, 20 
XS HTab Horizontal Distribution= 5 , 5 , 5 
Exp/Cntr=0.3,0.1

Type RM Length L Ch R = 1 ,2000.00*,500,500,500
Node Last Edited Time=Apr/30/2022 23:40:35
#Sta/Elev= 4 
       0    16.5       0  11.064      15  11.064      15    16.5
#Mann= 2 , 0 , 0 
       0     .04       0      15     .04       0
Bank Sta=0,15
XS Rating Curve= 0 ,0
XS HTab Starting El and Incr=11.214,0.26, 20 
XS HTab Horizontal Distribution= 5 , 5 , 5 
Exp/Cntr=0.3,0.1

Type RM Length L Ch R = 1 ,1500.00*,500,500,500
Node Last Edited Time=Apr/30/2022 23:40:35
#Sta/Elev= 4 
       0    16.5       0  10.973      15  10.973      15    16.5
#Mann= 2 , 0 , 0 
       0     .04       0      15     .04       0
Bank Sta=0,15
XS Rating Curve= 0 ,0
XS HTab Starting El and Incr=11.123,0.27, 20 
XS HTab Horizontal Distribution= 5 , 5 , 5 
Exp/Cntr=0.3,0.1

Type RM Length L Ch R = 1 ,1000.00*,500,500,500
Node Last Edited Time=Apr/30/2022 23:40:35
#Sta/Elev= 4 
       0    16.5       0  10.882      15  10.882      15    16.5
#Mann= 2 , 0 , 0 
       0     .04       0      15     .04       0
Bank Sta=0,15
XS Rating Curve= 0 ,0
XS HTab Starting El and Incr=11.032,0.27, 20 
XS HTab Horizontal Distribution= 5 , 5 , 5 
Exp/Cntr=0.3,0.1

Type RM Length L Ch R = 1 ,500.00* ,500,500,500
Node Last Edited Time=Apr/30/2022 23:40:35
#Sta/Elev= 4 
       0    16.5       0  10.791      15  10.791      15    16.5
#Mann= 2 , 0 , 0 
       0     .04       0      15     .04       0
Bank Sta=0,15
XS Rating Curve= 0 ,0
XS HTab Starting El and Incr=10.941,0.28, 20 
XS HTab Horizontal Distribution= 5 , 5 , 5 
Exp/Cntr=0.3,0.1

Type RM Length L Ch R = 1 ,0       ,5500,5500,5500
Node Last Edited Time=Apr/30/2022 23:40:27
#Sta/Elev= 4 
       0    16.5       0    10.7      15    10.7      15    16.5
#Mann= 3 , 0 , 0 
       0     .04       0       0     .04       0      15     .04       0
Bank Sta=0,15
XS Rating Curve= 0 ,0
XS HTab Starting El and Incr=10.85,0.28, 20 
XS HTab Horizontal Distribution= 5 , 5 , 5 
Exp/Cntr=0.3,0.1

River Reach=maozhouhe       ,maozhouhe       
Reach XY= 9 
798110.035103827 2514018.0908433798254.3787978442514465.55629476
798153.338212032 2514840.8498992798225.5100590412515172.84039544
798413.1568612632515360.48719767798398.7224918622515937.86197374
798398.7224918622516342.02431699798355.4193836562516688.44918263
 798302.615127752516833.72437474
Rch Text X Y=798158.1801098,2514721.9992262
Reverse River Text= 0 

Type RM Length L Ch R = 1 ,31430.88,465.44,465.44,465.44
Node Last Edited Time=Apr/27/2022 23:27:42
#Sta/Elev= 4 
       0    19.5       0    16.5      15    16.5      15    19.5
#Mann= 3 , 0 , 0 
       0     .04       0       0     .04       0      15     .04       0
Bank Sta=0,15
XS Rating Curve= 0 ,0
XS HTab Starting El and Incr=16.65,0.14, 20 
XS HTab Horizontal Distribution= 5 , 5 , 5 
Exp/Cntr(USF)=0.3,0.1
Exp/Cntr=0.3,0.1

Type RM Length L Ch R = 1 ,30965.4*,465.44,465.44,465.44
Node Last Edited Time=Apr/30/2022 22:58:33
#Sta/Elev= 4 
       0  18.998       0  15.998      15  15.998      15  18.998
#Mann= 2 , 0 , 0 
       0     .04       0      15     .04       0
Bank Sta=0,15
XS Rating Curve= 0 ,0
XS HTab Starting El and Incr=16.15,0.14, 20 
XS HTab Horizontal Distribution= 5 , 5 , 5 
Exp/Cntr=0.3,0.1

Type RM Length L Ch R = 1 ,30500.00,500,500,500
Node Last Edited Time=Apr/27/2022 23:27:42
#Sta/Elev= 4 
       0  18.496       0  15.496      15  15.496      15  18.496
#Mann= 3 , 0 , 0 
       0     .04       0       0     .04       0      15     .04       0
Bank Sta=0,15
XS Rating Curve= 0 ,0
XS HTab Starting El and Incr=15.646,0.14, 20 
XS HTab Horizontal Distribution= 5 , 5 , 5 
Exp/Cntr(USF)=0.3,0.1
Exp/Cntr=0.3,0.1

Type RM Length L Ch R = 1 ,30000.00,500,500,500
Node Last Edited Time=Apr/27/2022 23:27:42
#Sta/Elev= 4 
       0  17.957       0  14.957      15  14.957      15  17.957
#Mann= 3 , 0 , 0 
       0     .04       0       0     .04       0      15     .04       0
Bank Sta=0,15
XS Rating Curve= 0 ,0
XS HTab Starting El and Incr=15.107,0.14, 20 
XS HTab Horizontal Distribution= 5 , 5 , 5 
Exp/Cntr(USF)=0.3,0.1
Exp/Cntr=0.3,0.1

Type RM Length L Ch R = 1 ,29500.00,500,500,500
Node Last Edited Time=Apr/27/2022 23:27:42
#Sta/Elev= 4 
       0  17.418       0  14.418      15  14.418      15  17.418
#Mann= 3 , 0 , 0 
       0     .04       0       0     .04       0      15     .04       0
Bank Sta=0,15
XS Rating Curve= 0 ,0
XS HTab Starting El and Incr=14.568,0.14, 20 
XS HTab Horizontal Distribution= 5 , 5 , 5 
Exp/Cntr(USF)=0.3,0.1
Exp/Cntr=0.3,0.1

Type RM Length L Ch R = 1 ,29000.00,351.08,351.08,351.08
Node Last Edited Time=Apr/27/2022 23:27:42
#Sta/Elev= 4 
       0  16.879       0  13.879      15  13.879      15  16.879
#Mann= 3 , 0 , 0 
       0     .04       0       0     .04       0      15     .04       0
Bank Sta=0,15
XS Rating Curve= 0 ,0
XS HTab Starting El and Incr=14.029,0.14, 20 
XS HTab Horizontal Distribution= 5 , 5 , 5 
Exp/Cntr(USF)=0.3,0.1
Exp/Cntr=0.3,0.1

Type RM Length L Ch R = 1 ,28648.92,324.46,324.46,324.46
Node Last Edited Time=Apr/27/2022 23:27:42
#Sta/Elev= 4 
       0    16.5       0    13.5      15    13.5      15    16.5
#Mann= 3 , 0 , 0 
       0     .04       0       0     .04       0      15     .04       0
Bank Sta=0,15
XS Rating Curve= 0 ,0
XS HTab Starting El and Incr=13.65,0.14, 20 
XS HTab Horizontal Distribution= 5 , 5 , 5 
Exp/Cntr(USF)=0.3,0.1
Exp/Cntr=0.3,0.1

River Reach=maozhouhe       ,01              
Reach XY= 11 
 798302.615127752516833.72437474798300.9548864882516819.26252215
798296.8819018172516821.35080214798296.3001383112516825.56686355
798294.5087058092516846.03204063798239.9444284422516977.13657066
798528.6318164772517208.08648109798788.4504657092517612.24882434
798817.3192045122517915.37058178798701.844249298 2518088.5830146
 798771.046655932518257.99222876
Rch Text X Y=798419.7230098,2517189.7913382
Reverse River Text= 0 

Type RM Length L Ch R = 1 ,28324.4*,324.46,324.46,324.46
Node Last Edited Time=Apr/30/2022 22:58:33
#Sta/Elev= 4 
       0  16.062       0  13.062  16.313  13.062  16.313  16.062
#Mann= 2 , 0 , 0 
       0     .04       0  16.313     .04       0
Bank Sta=0,16.313
XS Rating Curve= 0 ,0
XS HTab Starting El and Incr=13.21,0.14, 20 
XS HTab Horizontal Distribution= 5 , 5 , 5 
Exp/Cntr=0.3,0.1

Type RM Length L Ch R = 1 ,28000.00,500,500,500
Node Last Edited Time=Apr/27/2022 23:27:42
#Sta/Elev= 4 
       0  15.624       0  12.624  17.627  12.624  17.627  15.624
#Mann= 3 , 0 , 0 
       0     .04       0       0     .04       0  17.627     .04       0
Bank Sta=0,17.627
XS Rating Curve= 0 ,0
XS HTab Starting El and Incr=12.774,0.14, 20 
XS HTab Horizontal Distribution= 5 , 5 , 5 
Exp/Cntr(USF)=0.3,0.1
Exp/Cntr=0.3,0.1

Type RM Length L Ch R = 1 ,27500.00,500,500,500
Node Last Edited Time=Apr/27/2022 23:27:42
#Sta/Elev= 4 
       0   14.95       0   11.95  19.651   11.95  19.651   14.95
#Mann= 3 , 0 , 0 
       0     .04       0       0     .04       0  19.651     .04       0
Bank Sta=0,19.651
XS Rating Curve= 0 ,0
XS HTab Starting El and Incr=12.1,0.14, 20 
XS HTab Horizontal Distribution= 5 , 5 , 5 
Exp/Cntr(USF)=0.3,0.1
Exp/Cntr=0.3,0.1

Type RM Length L Ch R = 1 ,27000.00,500,500,500
Node Last Edited Time=Apr/27/2022 23:27:42
#Sta/Elev= 4 
       0  14.275       0  11.275  21.675  11.275  21.675  14.275
#Mann= 3 , 0 , 0 
       0     .04       0       0     .04       0  21.675     .04       0
Bank Sta=0,21.675
XS Rating Curve= 0 ,0
XS HTab Starting El and Incr=11.425,0.14, 20 
XS HTab Horizontal Distribution= 5 , 5 , 5 
Exp/Cntr(USF)=0.3,0.1
Exp/Cntr=0.3,0.1

River Reach=maozhouhe       ,02              
Reach XY= 51 
 798771.046655932518257.99222876798803.0186857282518333.81611865
798802.8848351112518333.96729443 798629.672402292518536.04846605
  798716.27861872518781.43274588  798716.27861872519257.76693614
798615.2380328882519921.74792862798759.5817269052520138.26346965
798745.147357504 2520614.5976599798571.9349246832520961.02252555
798644.106771691 2521437.3567158798831.7535739142521870.38779786
798918.3597903252522606.54063735798499.7630776742523155.04667461
797864.6508239972523674.68397307797604.8321747652523992.24009991
796796.5074882672524252.05874914796175.8296039922524439.70555137
795699.4954137342524410.83681256795295.3330704852524353.09933496
 794920.039466042524093.28068573793736.4211750962523559.20901786
793462.1681564632523501.47154025792552.8028841532523703.55271188
792292.9842349212524021.10883872790936.1535111572523674.68397307
790041.2226082482523530.34027906789579.3227873922523689.11834248
788929.7761643132523573.64338726788540.0481904662523588.07775666
788265.7951718332523313.82473803 788410.138865852522851.92491718
788352.4013882432522678.71248435788063.7140002082522462.19694333
787601.8141793522522433.32820452787370.8642689242522750.88433136
787038.8737726842522707.58122316786981.1362950772522433.32820452
787139.9143584962522029.16586128787139.9143584962521754.91284264
 786591.408321232521480.65982401786201.6803473832521076.49748076
786143.9428697752520744.50698452786331.5896719982520412.51648828
 786432.630257812520123.82910024786288.2865637932519633.06054058
785985.1648063562519113.42324212785292.3150750722518752.56400708
784440.6872803692518348.40166383 783704.534440882517814.32999596
783026.1190789972517236.95521989
Rch Text X Y=794834.8147617,2518002.7329765
Reverse River Text= 0 

Type RM Length L Ch R = 1 ,26500.00,500,500,500
Node Last Edited Time=Apr/27/2022 23:27:42
#Sta/Elev= 4 
       0  13.601       0  10.601  23.698  10.601  23.698  13.601
#Mann= 3 , 0 , 0 
       0     .04       0       0     .04       0  23.698     .04       0
Bank Sta=0,23.698
XS Rating Curve= 0 ,0
XS HTab Starting El and Incr=10.751,0.14, 20 
XS HTab Horizontal Distribution= 5 , 5 , 5 
Exp/Cntr(USF)=0.3,0.1
Exp/Cntr=0.3,0.1

Type RM Length L Ch R = 1 ,26000.00,500,500,500
Node Last Edited Time=Apr/27/2022 23:27:42
#Sta/Elev= 4 
       0  12.926       0   9.926  25.722   9.926  25.722  12.926
#Mann= 3 , 0 , 0 
       0     .04       0       0     .04       0  25.722     .04       0
Bank Sta=0,25.722
XS Rating Curve= 0 ,0
XS HTab Starting El and Incr=10.076,0.14, 20 
XS HTab Horizontal Distribution= 5 , 5 , 5 
Exp/Cntr(USF)=0.3,0.1
Exp/Cntr=0.3,0.1

Type RM Length L Ch R = 1 ,25500.00,278.38,278.38,278.38
Node Last Edited Time=Apr/27/2022 23:27:42
#Sta/Elev= 4 
       0  12.251       0   9.251  27.746   9.251  27.746  12.251
#Mann= 3 , 0 , 0 
       0     .04       0       0     .04       0  27.746     .04       0
Bank Sta=0,27.746
XS Rating Curve= 0 ,0
XS HTab Starting El and Incr=9.401,0.14, 20 
XS HTab Horizontal Distribution= 5 , 5 , 5 
Exp/Cntr(USF)=0.3,0.1
Exp/Cntr=0.3,0.1

Type RM Length L Ch R = 1 ,25221.6*,278.38,278.38,278.38
Node Last Edited Time=Apr/30/2022 22:58:33
#Sta/Elev= 4 
       0  11.875       0   8.875  28.873   8.875  28.873  11.875
#Mann= 2 , 0 , 0 
       0     .04       0  28.873     .04       0
Bank Sta=0,28.873
XS Rating Curve= 0 ,0
XS HTab Starting El and Incr=9.03,0.14, 20 
XS HTab Horizontal Distribution= 5 , 5 , 5 
Exp/Cntr=0.3,0.1

Type RM Length L Ch R = 1 ,24943.24,443.24,443.24,443.24
Node Last Edited Time=Apr/27/2022 23:27:42
#Sta/Elev= 4 
       0    11.5       0     8.5      30     8.5      30    11.5
#Mann= 3 , 0 , 0 
       0     .04       0       0     .04       0      30     .04       0
Bank Sta=0,30
XS Rating Curve= 0 ,0
XS HTab Starting El and Incr=8.65,0.14, 20 
XS HTab Horizontal Distribution= 5 , 5 , 5 
Exp/Cntr(USF)=0.3,0.1
Exp/Cntr=0.3,0.1

Type RM Length L Ch R = 1 ,24500.00,500,500,500
Node Last Edited Time=Apr/27/2022 23:27:42
#Sta/Elev= 4 
       0  10.982       0   7.948  36.039   7.948  36.039  10.982
#Mann= 3 , 0 , 0 
       0     .04       0       0     .04       0  36.039     .04       0
Bank Sta=0,36.039
XS Rating Curve= 0 ,0
XS HTab Starting El and Incr=8.098,0.14, 21 
XS HTab Horizontal Distribution= 5 , 5 , 5 
Exp/Cntr(USF)=0.3,0.1
Exp/Cntr=0.3,0.1

Type RM Length L Ch R = 1 ,24000.00,400,400,400
Node Last Edited Time=Apr/27/2022 23:27:42
#Sta/Elev= 4 
       0  10.399       0   7.326  42.851   7.326  42.851  10.399
#Mann= 3 , 0 , 0 
       0     .04       0       0     .04       0  42.851     .04       0
Bank Sta=0,42.851
XS Rating Curve= 0 ,0
XS HTab Starting El and Incr=7.476,0.15, 20 
XS HTab Horizontal Distribution= 5 , 5 , 5 
Exp/Cntr(USF)=0.3,0.1
Exp/Cntr=0.3,0.1

Type RM Length L Ch R = 1 ,23600.00,252.33,252.33,252.33
Node Last Edited Time=Apr/27/2022 23:27:42
#Sta/Elev= 4 
       0   9.931       0   6.828    48.3   6.828    48.3   9.931
#Mann= 3 , 0 , 0 
       0     .04       0       0     .04       0    48.3     .04       0
Bank Sta=0,48.3
XS Rating Curve= 0 ,0
XS HTab Starting El and Incr=6.978,0.15, 20 
XS HTab Horizontal Distribution= 5 , 5 , 5 
Exp/Cntr(USF)=0.3,0.1
Exp/Cntr=0.3,0.1

Type RM Length L Ch R = 1 ,23347.6*,252.33,252.33,252.33
Node Last Edited Time=Apr/30/2022 22:58:33
#Sta/Elev= 4 
       0   9.636       0   6.514  51.738   6.514  51.738   9.636
#Mann= 2 , 0 , 0 
       0     .04       0  51.738     .04       0
Bank Sta=0,51.738
XS Rating Curve= 0 ,0
XS HTab Starting El and Incr=6.66,0.15, 20 
XS HTab Horizontal Distribution= 5 , 5 , 5 
Exp/Cntr=0.3,0.1

Type RM Length L Ch R = 1 ,23095.34,413.64,413.64,413.64
Node Last Edited Time=Apr/27/2022 23:27:42
#Sta/Elev= 4 
       0   9.342       0     6.2  55.176     6.2  55.176   9.342
#Mann= 3 , 0 , 0 
       0     .04       0       0     .04       0  55.176     .04       0
Bank Sta=0,55.176
XS Rating Curve= 0 ,0
XS HTab Starting El and Incr=6.35,0.15, 20 
XS HTab Horizontal Distribution= 5 , 5 , 5 
Exp/Cntr(USF)=0.3,0.1
Exp/Cntr=0.3,0.1

Type RM Length L Ch R = 1 ,22681.7*,413.64,413.64,413.64
Node Last Edited Time=Apr/30/2022 22:58:33
#Sta/Elev= 4 
       0   8.859       0     5.7  60.812     5.7  60.812   8.859
#Mann= 2 , 0 , 0 
       0     .04       0  60.812     .04       0
Bank Sta=0,60.812
XS Rating Curve= 0 ,0
XS HTab Starting El and Incr=5.85,0.15, 20 
XS HTab Horizontal Distribution= 5 , 5 , 5 
Exp/Cntr=0.3,0.1

Type RM Length L Ch R = 1 ,22268.06,296.17,296.17,296.17
Node Last Edited Time=Apr/27/2022 23:27:42
#Sta/Elev= 4 
       0   8.376       0     5.2  66.447     5.2  66.447   8.376
#Mann= 3 , 0 , 0 
       0     .04       0       0     .04       0  66.447     .04       0
Bank Sta=0,66.447
XS Rating Curve= 0 ,0
XS HTab Starting El and Incr=5.35,0.15, 20 
XS HTab Horizontal Distribution= 5 , 5 , 5 
Exp/Cntr(USF)=0.3,0.1
Exp/Cntr=0.3,0.1

Type RM Length L Ch R = 1 ,21971.8*,296.17,296.17,296.17
Node Last Edited Time=Apr/30/2022 22:58:33
#Sta/Elev= 4 
       0    8.03       0   4.783  70.482   4.783  70.482    8.03
#Mann= 2 , 0 , 0 
       0     .04       0  70.482     .04       0
Bank Sta=0,70.482
XS Rating Curve= 0 ,0
XS HTab Starting El and Incr=4.93,0.16, 20 
XS HTab Horizontal Distribution= 5 , 5 , 5 
Exp/Cntr=0.3,0.1

Type RM Length L Ch R = 1 ,21675.72,337.86,337.86,337.86
Node Last Edited Time=Apr/27/2022 23:27:42
#Sta/Elev= 4 
       0   7.684       0   4.366  74.517   4.366  74.517   7.684
#Mann= 3 , 0 , 0 
       0     .04       0       0     .04       0  74.517     .04       0
Bank Sta=0,74.517
XS Rating Curve= 0 ,0
XS HTab Starting El and Incr=4.516,0.16, 20 
XS HTab Horizontal Distribution= 5 , 5 , 5 
Exp/Cntr(USF)=0.3,0.1
Exp/Cntr=0.3,0.1

Type RM Length L Ch R = 1 ,21337.8*,337.86,337.86,337.86
Node Last Edited Time=Apr/30/2022 22:58:33
#Sta/Elev= 4 
       0    7.29       0   3.938   79.12   3.938   79.12    7.29
#Mann= 2 , 0 , 0 
       0     .04       0   79.12     .04       0
Bank Sta=0,79.12
XS Rating Curve= 0 ,0
XS HTab Starting El and Incr=4.09,0.16, 20 
XS HTab Horizontal Distribution= 5 , 5 , 5 
Exp/Cntr=0.3,0.1

Type RM Length L Ch R = 1 ,21000.00,500,500,500
Node Last Edited Time=Apr/27/2022 23:27:42
#Sta/Elev= 4 
       0   6.895       0   3.511  83.723   3.511  83.723   6.895
#Mann= 3 , 0 , 0 
       0     .04       0       0     .04       0  83.723     .04       0
Bank Sta=0,83.723
XS Rating Curve= 0 ,0
XS HTab Starting El and Incr=3.661,0.16, 20 
XS HTab Horizontal Distribution= 5 , 5 , 5 
Exp/Cntr(USF)=0.3,0.1
Exp/Cntr=0.3,0.1

Type RM Length L Ch R = 1 ,20500.00,347.36,347.36,347.36
Node Last Edited Time=Apr/27/2022 23:27:42
#Sta/Elev= 4 
       0   6.311       0   2.879  90.535   2.879  90.535   6.311
#Mann= 3 , 0 , 0 
       0     .04       0       0     .04       0  90.535     .04       0
Bank Sta=0,90.535
XS Rating Curve= 0 ,0
XS HTab Starting El and Incr=3.029,0.16, 21 
XS HTab Horizontal Distribution= 5 , 5 , 5 
Exp/Cntr(USF)=0.3,0.1
Exp/Cntr=0.3,0.1

Type RM Length L Ch R = 1 ,20152.6*,347.36,347.36,347.36
Node Last Edited Time=Apr/30/2022 22:58:33
#Sta/Elev= 4 
       0   5.905       0   2.439  95.268   2.439  95.268   5.905
#Mann= 2 , 0 , 0 
       0     .04       0  95.268     .04       0
Bank Sta=0,95.268
XS Rating Curve= 0 ,0
XS HTab Starting El and Incr=2.59,0.16, 22 
XS HTab Horizontal Distribution= 5 , 5 , 5 
Exp/Cntr=0.3,0.1

Type RM Length L Ch R = 1 ,19805.28,302.64,302.64,302.64
Node Last Edited Time=Apr/27/2022 23:27:42
#Sta/Elev= 4 
       0     5.5       0       2     100       2     100     5.5
#Mann= 3 , 0 , 0 
       0     .04       0       0     .04       0     100     .04       0
Bank Sta=0,100
XS Rating Curve= 0 ,0
XS HTab Starting El and Incr=2.15,0.17, 20 
XS HTab Horizontal Distribution= 5 , 5 , 5 
Exp/Cntr(USF)=0.3,0.1
Exp/Cntr=0.3,0.1

Type RM Length L Ch R = 1 ,19502.6*,302.64,302.64,302.64
Node Last Edited Time=Apr/30/2022 22:58:33
#Sta/Elev= 28 
       0   4.985       0   2.393    .162   2.393   3.537   2.395   3.542   2.372
   3.662    2.18   3.717   2.178   5.646   1.992    5.76   1.984   6.357    1.98
   7.214    1.95   7.338     1.9   8.807    1.85  11.161   1.826  11.394   1.825
  13.462   1.822  13.726   1.819  22.621   1.743  72.866   1.743  79.211   3.506
  79.296   3.507  79.509   3.507  89.652   3.561   89.71   3.561  92.358   3.638
  92.412    3.64  94.325   3.912  94.861   4.754
#Mann= 2 , 0 , 0 
       0     .04       0  94.861     .04       0
Bank Sta=0,94.861
XS Rating Curve= 0 ,0
XS HTab Starting El and Incr=1.89,0.16, 20 
XS HTab Horizontal Distribution= 5 , 5 , 5 
Exp/Cntr=0.3,0.1

Type RM Length L Ch R = 1 ,19200.00,457.582,457.582,457.582
Node Last Edited Time=Apr/30/2022 22:57:58
#Sta/Elev= 28 
       0    4.47       0   2.787    .323   2.787   7.075   2.789   7.083   2.745
   7.324    2.36   7.433   2.356  11.292   1.983  11.519   1.968  12.713   1.961
  14.427     1.9  14.676     1.8  17.613     1.7  22.322   1.652  22.787   1.649
  26.923   1.644  27.451   1.639  45.242   1.487  45.732   1.487  58.422   1.512
  58.591   1.515  59.019   1.514  79.304   1.622   79.42   1.622  84.716   1.777
  84.824   1.779  88.649   2.325  89.722   4.009
#Mann= 3 , 0 , 0 
       0     .04       0       0     .04       0  89.722     .04       0
Bank Sta=0,89.722
XS Rating Curve= 0 ,0
XS HTab Starting El and Incr=1.637,0.14, 20 
XS HTab Horizontal Distribution= 5 , 5 , 5 
Exp/Cntr(USF)=0.3,0.1
Exp/Cntr=0.3,0.1

Type RM Length L Ch R = 1 ,18742.4*,457.582,457.582,457.582
Node Last Edited Time=Apr/30/2022 22:58:33
#Sta/Elev= 84 
       0   4.376       0   2.903    .122   2.903    .326   2.903   1.447   2.905
   1.553   2.905   2.346   2.864   5.214   2.841   5.573   2.671   5.614   2.671
   6.209   2.664   6.242   2.664   6.278   2.663   7.139   2.661   7.148   2.623
   7.391   2.285   7.496   2.282   7.513   2.278   7.929   2.148  11.395   1.854
  11.624   1.841  11.856   1.839  11.972   1.839  12.829   1.835  14.558   1.783
   14.81   1.696  17.639   1.615  17.773   1.611  17.811    1.61  19.912   1.591
  20.036    1.59  22.525   1.564  22.995    1.56  27.168   1.549  27.701   1.544
  28.582   1.536  28.684   1.535  28.794   1.533   32.87   1.491  32.895   1.491
  36.606   1.452  38.869   1.428  40.338    1.41  40.439   1.409  45.654   1.334
  46.083   1.334  46.121   1.334  46.228   1.335  50.707   1.359  55.478   1.392
  55.566   1.392  58.528   1.413  58.693   1.416  59.113   1.417  60.238   1.429
  60.372    1.43  60.499   1.431  62.183   1.442  62.269   1.443  74.296   1.514
  74.351   1.514  79.006   1.566   79.12   1.566  79.401   1.575  80.801   1.618
  81.045   1.625  81.116   1.627  81.128   1.628  82.701   1.676  82.758   1.678
  84.313   1.724  84.419   1.726  84.675   1.759  84.727   1.766  84.738   1.769
  85.456   1.878   87.27   2.114  87.897   2.241  88.044    2.26   88.17   2.276
  88.404   2.603  88.419   2.625  89.179   3.911  89.223   3.974
#Mann= 2 , 0 , 0 
       0     .04       0  89.223     .04       0
Bank Sta=0,89.223
XS Rating Curve= 0 ,0
XS HTab Starting El and Incr=1.48,0.14, 21 
XS HTab Horizontal Distribution= 5 , 5 , 5 
Exp/Cntr=0.3,0.1

Type RM Length L Ch R = 1 ,18284.8*,457.582,457.582,457.582
Node Last Edited Time=Apr/30/2022 22:58:33
#Sta/Elev= 84 
       0   4.282       0    3.02    .123   3.019    .329   3.019    1.46   3.022
   1.567   3.022   2.367    2.94   5.262   2.893   5.623   2.554   5.665   2.553
   6.265   2.539   6.298   2.539   6.335   2.538   7.204   2.534   7.212   2.501
   7.457   2.211   7.564   2.207   7.581   2.202   8.001    1.98  11.498   1.725
  11.729   1.713  11.963   1.712  12.081   1.711  12.945   1.709   14.69   1.667
  14.943   1.592  17.799   1.525  17.934   1.522  17.971   1.521  20.092   1.504
  20.217   1.502  22.729   1.475  23.202   1.472  27.414   1.454  27.951   1.449
   28.84    1.44  28.943    1.44  29.054   1.436  33.167   1.387  33.192   1.387
  36.936    1.34   39.22   1.312  40.702   1.288  40.804   1.287  46.066   1.181
  46.434   1.181  46.471   1.181  46.576   1.182  50.967   1.222  55.644   1.277
   55.73   1.278  58.633   1.313  58.796   1.317  59.207   1.321   60.31   1.337
  60.442   1.339  60.566    1.34  62.217   1.354  62.301   1.355  74.091   1.431
  74.145   1.432  78.708   1.509  78.819   1.511  79.095   1.521  80.467   1.564
  80.707   1.571  80.777   1.573  80.788   1.574   82.33   1.623  82.386   1.625
  83.911    1.67  84.015   1.673  84.266   1.702  84.317   1.708  84.327   1.712
  85.031   1.826  86.809   2.035  87.423   2.196  87.568   2.213  87.692   2.227
   87.92   2.508  87.935   2.527   88.68   3.884  88.723   3.939
#Mann= 2 , 0 , 0 
       0     .04       0  88.723     .04       0
Bank Sta=0,88.723
XS Rating Curve= 0 ,0
XS HTab Starting El and Incr=1.33,0.15, 20 
XS HTab Horizontal Distribution= 5 , 5 , 5 
Exp/Cntr=0.3,0.1

Type RM Length L Ch R = 1 ,17827.2*,457.582,457.582,457.582
Node Last Edited Time=Apr/30/2022 22:58:33
#Sta/Elev= 85 
       0   4.188       0   3.136    .124   3.135    .332   3.136   1.473   3.139
   1.581   3.139   2.388   3.016   5.309   2.945   5.318   2.935   5.673   2.437
   5.716   2.435   6.321   2.414   6.354   2.414   6.392   2.413   7.268   2.406
   7.277   2.379   7.524   2.136   7.632   2.133   7.649   2.125   8.072   1.813
  11.601   1.596  11.834   1.586   12.07   1.585  12.189   1.584   13.06   1.583
  14.821    1.55  15.077   1.488  17.958   1.436  18.094   1.432  18.132   1.432
  20.271   1.416  20.398   1.415  22.932   1.387   23.41   1.383  27.659    1.36
  28.201   1.354  29.098   1.345  29.202   1.344  29.314   1.339  33.463   1.282
  33.489   1.282  37.267   1.228  39.571   1.195  41.066   1.166  41.169   1.165
  46.478   1.028  46.785   1.028  46.821   1.028  46.924    1.03  51.226   1.085
  55.809   1.163  55.894   1.164  58.739   1.214  58.898   1.218  59.301   1.224
  60.382   1.246  60.511   1.248  60.632    1.25   62.25   1.266  62.333   1.266
  73.886   1.348  73.938   1.349   78.41   1.453  78.519   1.455  78.789   1.466
  80.134   1.509  80.369   1.517  80.437   1.519  80.448   1.521  81.959   1.571
  82.014   1.572  83.508   1.617   83.61    1.62  83.856   1.646  83.906   1.651
  83.916   1.655  84.606   1.775  86.348   1.955   86.95   2.151  87.092   2.166
  87.213   2.178  87.437   2.413  87.452   2.429  88.182   3.856  88.224   3.904
#Mann= 2 , 0 , 0 
       0     .04       0  88.224     .04       0
Bank Sta=0,88.224
XS Rating Curve= 0 ,0